MODEL 1
REMARK minimizedAffinity -10.394145
REMARK minimizedRMSD -1
REMARK  Name = 
REMARK  6 active torsions:
REMARK  status: ('A' for Active; 'I' for Inactive)
REMARK    1  A    between atoms: C_1  and  C_2
REMARK    2  A    between atoms: C_2  and  C_3
REMARK    3  A    between atoms: C_2  and  N_16
REMARK    4  A    between atoms: N_5  and  C_6
REMARK    5  A    between atoms: C_19  and  O_20
REMARK    6  A    between atoms: C_19  and  C_21
REMARK                            x       y       z     vdW  Elec       q    Type
REMARK                         _______ _______ _______ _____ _____    ______ ____
ROOT
ATOM      1  C   UNL     1     -17.608  16.523 -15.566  0.00  0.00    +0.000 C 
ATOM      2  O   UNL     1     -18.163  16.275 -14.494  0.00  0.00    +0.000 OA
ATOM      3  N   UNL     1     -16.513  15.813 -16.037  0.00  0.00    +0.000 N 
ATOM      4  H   UNL     1     -15.883  16.300 -16.656  0.00  0.00    +0.000 HD
ENDROOT
BRANCH   3   5
ATOM      5  C   UNL     1     -15.966  14.733 -15.301  0.00  0.00    +0.000 A 
ATOM      6  C   UNL     1     -16.653  13.514 -15.281  0.00  0.00    +0.000 A 
ATOM      7  C   UNL     1     -16.138  12.421 -14.592  0.00  0.00    +0.000 A 
ATOM      8  C   UNL     1     -14.935  12.546 -13.902  0.00  0.00    +0.000 A 
ATOM      9  C   UNL     1     -14.232  13.761 -13.889  0.00  0.00    +0.000 A 
ATOM     10  C   UNL     1     -13.049  13.878 -13.144  0.00  0.00    +0.000 A 
ATOM     11  C   UNL     1     -12.361  15.089 -13.072  0.00  0.00    +0.000 A 
ATOM     12  C   UNL     1     -12.840  16.197 -13.758  0.00  0.00    +0.000 A 
ATOM     13  C   UNL     1     -14.010  16.092 -14.517  0.00  0.00    +0.000 A 
ATOM     14  C   UNL     1     -14.731  14.880 -14.605  0.00  0.00    +0.000 A 
ENDBRANCH   3   5
BRANCH   1  16
ATOM     15  C   UNL     1     -17.044  18.612 -16.998  0.00  0.00    +0.000 C 
ATOM     16  C   UNL     1     -18.132  17.673 -16.469  0.00  0.00    +0.000 C 
BRANCH  16  17
ATOM     17  N   UNL     1     -19.014  17.203 -17.553  0.00  0.00    +0.000 NA
ATOM     18  C   UNL     1     -18.384  17.065 -18.869  0.00  0.00    +0.000 C 
ATOM     19  C   UNL     1     -19.416  17.529 -19.891  0.00  0.00    +0.000 C 
ATOM     20  C   UNL     1     -20.749  17.525 -19.151  0.00  0.00    +0.000 C 
ATOM     21  C   UNL     1     -20.298  17.891 -17.723  0.00  0.00    +0.000 C 
BRANCH  20  22
ATOM     22  C   UNL     1     -21.460  16.183 -19.203  0.00  0.00    +0.000 C 
ATOM     23  C   UNL     1     -22.864  16.022 -19.746  0.00  0.00    +0.000 C 
ATOM     24  C   UNL     1     -22.613  15.855 -18.275  0.00  0.00    +0.000 C 
ENDBRANCH  20  22
BRANCH  20  25
ATOM     25  O   UNL     1     -21.587  18.553 -19.674  0.00  0.00    +0.000 OA
ATOM     26  H   UNL     1     -21.769  18.322 -20.599  0.00  0.00    +0.000 HD
ENDBRANCH  20  25
ENDBRANCH  16  17
ENDBRANCH   1  16
TORSDOF 5
ENDMDL
