MODEL 1
REMARK minimizedAffinity -9.20573044
REMARK minimizedRMSD -1
REMARK  Name = 
REMARK  5 active torsions:
REMARK  status: ('A' for Active; 'I' for Inactive)
REMARK    1  A    between atoms: C_7  and  C_8
REMARK    2  A    between atoms: C_10  and  C_11
REMARK    3  A    between atoms: C_11  and  N_12
REMARK    4  A    between atoms: C_16  and  C_17
REMARK    5  A    between atoms: C_17  and  N_18
REMARK                            x       y       z     vdW  Elec       q    Type
REMARK                         _______ _______ _______ _____ _____    ______ ____
ROOT
ATOM      1  C   UNL     1     -16.353  15.613 -15.205  0.00  0.00    +0.000 A 
ATOM      2  C   UNL     1     -15.911  16.418 -16.223  0.00  0.00    +0.000 A 
ATOM      3  C   UNL     1     -17.053  17.161 -16.619  0.00  0.00    +0.000 A 
ATOM      4  N   UNL     1     -18.037  17.004 -15.724  0.00  0.00    +0.000 NA
ATOM      5  O   UNL     1     -17.588  16.040 -14.819  0.00  0.00    +0.000 OA
ENDROOT
BRANCH   1  12
ATOM      6 CL   UNL     1     -13.614  15.618 -13.599  0.00  0.00    +0.000 Cl
ATOM      7  C   UNL     1     -14.600  14.251 -14.017  0.00  0.00    +0.000 A 
ATOM      8  C   UNL     1     -14.030  13.007 -13.712  0.00  0.00    +0.000 A 
ATOM      9  C   UNL     1     -14.736  11.836 -13.984  0.00  0.00    +0.000 A 
ATOM     10  C   UNL     1     -15.996  11.915 -14.541  0.00  0.00    +0.000 A 
ATOM     11  C   UNL     1     -16.563  13.148 -14.885  0.00  0.00    +0.000 A 
ATOM     12  C   UNL     1     -15.857  14.343 -14.659  0.00  0.00    +0.000 A 
ENDBRANCH   1  12
BRANCH   3  13
ATOM     13  C   UNL     1     -17.240  17.910 -17.932  0.00  0.00    +0.000 C 
BRANCH  13  14
ATOM     14  N   UNL     1     -17.579  17.111 -19.133  0.00  0.00    +0.000 NA
ATOM     15  C   UNL     1     -16.440  16.936 -20.045  0.00  0.00    +0.000 C 
ATOM     16  C   UNL     1     -16.573  18.028 -21.082  0.00  0.00    +0.000 C 
ATOM     17  C   UNL     1     -18.074  18.129 -21.265  0.00  0.00    +0.000 C 
ATOM     18  C   UNL     1     -18.707  17.642 -19.948  0.00  0.00    +0.000 C 
BRANCH  18  19
ATOM     19  C   UNL     1     -19.836  16.621 -20.237  0.00  0.00    +0.000 C 
BRANCH  19  20
ATOM     20  N   UNL     1     -20.805  16.535 -19.144  0.00  0.00    +0.000 N 
ATOM     21  C   UNL     1     -20.999  17.398 -18.107  0.00  0.00    +0.000 A 
ATOM     22  N   UNL     1     -21.973  16.949 -17.337  0.00  0.00    +0.000 NA
ATOM     23  C   UNL     1     -22.344  15.798 -17.958  0.00  0.00    +0.000 A 
ATOM     24  N   UNL     1     -21.662  15.497 -19.068  0.00  0.00    +0.000 NA
ENDBRANCH  19  20
ENDBRANCH  18  19
ENDBRANCH  13  14
ENDBRANCH   3  13
TORSDOF 5
ENDMDL
